/*--------------------------------*- C++ -*----------------------------------*\
  =========                 |
  \\      /  F ield         | OpenFOAM: The Open Source CFD Toolbox
   \\    /   O peration     | Website:  https://openfoam.org
    \\  /    A nd           | Version:  11
     \\/     M anipulation  |
\*---------------------------------------------------------------------------*/
FoamFile
{
    format      ascii;
    class       polyBoundaryMesh;
    location    "constant/polyMesh";
    object      boundary;
}
// * * * * * * * * * * * * * * * * * * * * * * * * * * * * * * * * * * * * * //

3
(
    inlet
    {
        type            patch;
        physicalType    patch;
        nFaces          100;
        startFace       37779;
    }
    outlets
    {
        type            patch;
        physicalType    patch;
        nFaces          500;
        startFace       37879;
    }
    wall
    {
        type            wall;
        physicalType    wall;
        nFaces          7774;
        startFace       38379;
    }
)

// ************************************************************************* //
